
            /*--------------------------------*- C++ -*----------------------------------*\
            | =========                 |                                                 |
            | \\      /  F ield         | OpenFOAM: The Open Source CFD Toolbox           |
            |  \\    /   O peration     | Version:  plus                                  |
            |   \\  /    A nd           | Web:      www.OpenFOAM.com                      |
            |    \\/     M anipulation  |                                                 |
            \*---------------------------------------------------------------------------*/
            FoamFile
            {
                version     2.0;
                format      ascii;
                class       dictionary;
                object      changeDictionaryDict;
            }
            // * * * * * * * * * * * * * * * * * * * * * * * * * * * * * * * * * * * * * //

            boundary
            {
                minX
                {
                    type            wall;
                }
                maxX
                {
                    type            wall;
                }
                minY
                {
                    type            wall;
                }
                maxY
                {
                    type            wall;
                }
                minZ
                {
                    type            wall;
                }
                maxZ
                {
                    type            wall;
                }
            }

            T
            {
                internalField   uniform 300;

                boundaryField
                {
                    ".*"
                    {
                        type            zeroGradient;
                        value           uniform 300;
                    }
                    "mainSolid_to_heater"
                    {
                        type            compressible::turbulentTemperatureCoupledBaffleMixed;
                        Tnbr            T;
                        kappaMethod     solidThermo;
                        value           uniform 300;
                    }

                    // heater_to_leftSolid
                    // {
                    //     type            compressible::turbulentTemperatureCoupledBaffleMixed;
                    //     Tnbr            T;
                    //     kappaMethod     solidThermo;
                    //     thicknessLayers (1e-3);
                    //     kappaLayers     (5e-4);
                    //     value           uniform 300;
                    // }

                    minY
                    {
                        type            fixedValue;
                        value           uniform 500;
                    }
                }
            }

            // ************************************************************************* //
            