
            /*--------------------------------*- C++ -*----------------------------------*\
            | =========                 |                                                 |
            | \\      /  F ield         | OpenFOAM: The Open Source CFD Toolbox           |
            |  \\    /   O peration     | Version:  plus                                  |
            |   \\  /    A nd           | Web:      www.OpenFOAM.com                      |
            |    \\/     M anipulation  |                                                 |
            \*---------------------------------------------------------------------------*/
            FoamFile
            {
                version     2.0;
                format      ascii;
                class       dictionary;
                object      thermophysicalProperties;
            }
            // * * * * * * * * * * * * * * * * * * * * * * * * * * * * * * * * * * * * * //

            thermoType
            {
                type            heSolidThermo;
                mixture         pureMixture;
                transport       constIso;
                thermo          hConst;
                equationOfState rhoConst;
                specie          specie;
                energy          sensibleEnthalpy;
            }

            mixture
            {
                // specie
                // {
                //     molWeight   27;
                // }
                //
                // transport
                // {
                //     kappa   143;
                // }
                //
                // thermodynamics
                // {
                //     Hf      0;
                //     Cp      795;
                // }
                //
                // equationOfState
                // {
                //     rho     2800;
                // }
                specie
                {
                    molWeight   27;
                }

                transport
                {
                    kappa   0;
                }

                thermodynamics
                {
                    Hf      0;
                    Cp      795;
                }

                equationOfState
                {
                    rho     2800;
                }
            }

            // ************************************************************************* //
            