
            /*--------------------------------*- C++ -*----------------------------------*\
            | =========                 |                                                 |
            | \\      /  F ield         | OpenFOAM: The Open Source CFD Toolbox           |
            |  \\    /   O peration     | Version:  plus                                  |
            |   \\  /    A nd           | Web:      www.OpenFOAM.com                      |
            |    \\/     M anipulation  |                                                 |
            \*---------------------------------------------------------------------------*/
            FoamFile
            {
                version     2.0;
                format      ascii;
                class       dictionary;
                object      topoSetDict;
            }

            // * * * * * * * * * * * * * * * * * * * * * * * * * * * * * * * * * * * * * //

            actions
            (
                // heater
                {
                    name    heaterCellSet;
                    type    cellSet;
                    action  new;
                    source  boxToCell;
                    sourceInfo
                    {
                        box (-0.0708231662968 -0.00609515303548 -0.01)(-0.0579758072778 0.0371717911073 0.01);
                    }
                }
                {
                    name    heater;
                    type    cellZoneSet;
                    action  new;
                    source  setToCellZone;
                    sourceInfo
                    {
                        set heaterCellSet;
                    }
                }

                // mainSolid is all the other cells
                {
                    name    mainSolidCellSet;
                    type    cellSet;
                    action  new;
                    source  cellToCell;
                    sourceInfo
                    {
                        set heaterCellSet;
                    }
                }
                {
                    name    mainSolidCellSet;
                    type    cellSet;
                    action  invert;
                }
                {
                    name    mainSolid;
                    type    cellZoneSet;
                    action  new;
                    source  setToCellZone;
                    sourceInfo
                    {
                        set mainSolidCellSet;
                    }
                }
            );


            // ************************************************************************* //
            